read_data	PE_nc10_cl1000.dat
  orthogonal box = (0 0 0) to (80.0586 80.0586 80.0586)
  reading atoms ...
  10000 atoms
  scanning bonds ...
  scanning angles ...
  scanning dihedrals ...
  reading bonds ...
  9990 bonds
  reading angles ...
  9980 angles
  reading dihedrals ...
  9970 dihedrals

# Dreiding potential information
neighbor	0.4 bin
neigh_modify	every 10 one 10000
bond_style      harmonic
bond_coeff	1 350 1.53
angle_style     harmonic
angle_coeff	1 60 109.5
dihedral_style	multi/harmonic
dihedral_coeff	1 1.73 -4.49 0.776 6.99 0.0
pair_style	lj/cut 10.5
pair_coeff	1 1 0.112 4.01 10.5

#####################################################
# Equilibration Stage 1 (Langevin dynamics at 500 K)
velocity 	all create 500.0 1231
fix		1 all nve/limit 0.05
fix		2 all langevin 500.0 500.0 10.0 904297
thermo_style	custom step temp press
thermo          100
timestep	1
run		10000
  update every 10 steps, delay 10 steps, check yes
Step Temp Press
0          500 1.8475472e+08
Averages over the last 51 of 101 rows, steps 5000 to 10000:
Temp Press
500.207 2125.8
Loop time of 43.6035 on 8 procs for 10000 steps with 10000 atoms

unfix 1
unfix 2
write_restart 	restart.PE_nc10_cl1000.dreiding1

#####################################################
# Equilibration Stage 2 (NPT dynamics at 500 K)
fix		1 all npt temp 500.0 500.0 50 iso 0 0 1000 drag 2
fix  		2 all momentum 1 linear 1 1 1
thermo_style	custom step temp press
thermo          100
timestep	0.5
reset_timestep	0
run		50000
Step Temp Press
0     498.7076    1491.9451
Averages over the last 251 of 501 rows, steps 25000 to 50000:
Temp Press
500.345 -24.0379
Loop time of 193.589 on 8 procs for 50000 steps with 10000 atoms

unfix 1
unfix 2
write_restart 	restart.PE_nc10_cl1000.dreiding2

#####################################################
# Equilibration Stage 3 (NPT dynamics from 500 K --> 100 K)
fix		1 all npt temp 500 100 50 iso 0 0 1000 drag 2
fix		2 all momentum 1 linear 1 1 1
thermo_style	custom step temp press
thermo          10
timestep	0.5
reset_timestep 	0
run		50000
Step Temp Press
0    494.89226    -341.3622
Averages over the last 2501 of 5001 rows, steps 25000 to 50000:
Temp Press
203.418 -18.0292
Loop time of 197.922 on 8 procs for 50000 steps with 10000 atoms

unfix 1
unfix 2
write_restart 	restart.PE_nc10_cl1000.dreiding3

#####################################################
# Equilibration Stage 4 (NPT dynamics at 100 K)
fix		1 all npt temp 100 100 50 iso 0 0 1000 drag 2
fix		2 all momentum 1 linear 1 1 1
thermo_style	custom step temp press epair ebond eangle edihed pxx pyy pzz lx ly lz
thermo          10
timestep	0.5
reset_timestep 	0
run		50000
Step Temp Press E_pair E_bond E_angle E_dihed Pxx Pyy Pzz Lx Ly Lz
0     103.0954   -305.64804   -14359.304    925.76384    1234.8334    3868.7141    -221.2306   -481.17962   -214.53389    65.350469    65.350469    65.350469
Averages over the last 2501 of 5001 rows, steps 25000 to 50000:
Temp Press E_pair E_bond E_angle E_dihed Pxx Pyy Pzz Lx Ly Lz
99.9959 -0.372021 -14406.9 901.877 1207.43 3786.66 46.7897 -9.90522 -38.0006 65.2697 65.2697 65.2697
Loop time of 211.852 on 8 procs for 50000 steps with 10000 atoms

unfix 1
unfix 2
write_restart 	restart.PE_nc10_cl1000.dreiding4

#####################################################
# Uniaxial Tensile Deformation
run 0
Step Temp Press E_pair E_bond E_angle E_dihed Pxx Pyy Pzz Lx Ly Lz
50000     99.82859   -119.16395   -14415.262    913.06976    1220.9798    3786.0703   -41.622015   -285.47783   -30.392009    65.227176    65.227176    65.227176
Loop time of 2.63112e-06 on 8 procs for 0 steps with 10000 atoms

variable tmp equal "lx"
variable L0 equal 65.2271755360659
variable strain equal "(lx - v_L0)/v_L0"
variable p1 equal "v_strain"
variable p2 equal "-pxx/10000*1.01325"
variable p3 equal "-pyy/10000*1.01325"
variable p4 equal "-pzz/10000*1.01325"
variable p5 equal "lx"
variable p6 equal "ly"
variable p7 equal "lz"
variable p8 equal "temp"
variable t2 equal "epair"
variable t3 equal "ebond"
variable t4 equal "eangle"
variable t5 equal "edihed"
fix		1 all npt temp 100 100 50 y 0 0 1000 z 0 0 1000 drag 2
fix		2 all deform 1 x erate 1e-5 units box remap x
thermo_style	custom step temp pxx pyy pzz lx ly lz epair ebond eangle edihed
thermo          100
timestep	1
reset_timestep	0
run		171800
Step Temp Pxx Pyy Pzz Lx Ly Lz E_pair E_bond E_angle E_dihed
0     99.82859   -41.622015   -285.47783   -30.392009    65.227176    65.227176    65.227176   -14415.262    913.06976    1220.9798    3786.0703
Averages over the last 860 of 1719 rows, steps 85900 to 171800:
Temp Pxx Pyy Pzz Lx Ly Lz E_pair E_bond E_angle E_dihed
100.083 -1292.07 -5.00436 -2.51539 149.272 43.5844 44.1453 -13794.1 750.351 1277.85 3994.99
Loop time of 881.099 on 8 procs for 171800 steps with 10000 atoms

unfix 1
unfix 2
unfix def1
unfix def2

print "All done"
All done
